
     RDKit          3D

 21 21  0  0  0  0  0  0  0  0999 V2000
    3.2989    0.7766   -0.5217 C   0  0  0  0  0  0  0  0  0  0  0  0
   -2.7056   -1.5081    0.1178 C   0  0  0  0  0  0  0  0  0  0  0  0
   -1.9426   -2.0088   -0.9103 C   0  0  0  0  0  0  0  0  0  0  0  0
   -2.3045   -0.3722    0.8310 C   0  0  0  0  0  0  0  0  0  0  0  0
   -0.7695   -1.3506   -1.2115 C   0  0  0  0  0  0  0  0  0  0  0  0
    2.0335    0.0866   -0.2109 C   0  0  0  0  0  0  0  0  0  0  0  0
   -1.1277    0.2638    0.5072 C   0  0  0  0  0  0  0  0  0  0  0  0
   -0.3599   -0.2299   -0.5183 C   0  0  0  0  0  0  0  0  0  0  0  0
   -0.6753    1.4404    1.2179 C   0  0  0  0  0  0  0  0  0  0  0  0
    1.9761   -0.8519    0.6248 O   0  0  0  0  0  0  0  0  0  0  0  0
   -1.3863    1.8810    2.1527 O   0  0  0  0  0  0  0  0  0  0  0  0
    0.5011    2.1061    0.9209 O   0  0  0  0  0  0  0  0  0  0  0  0
    0.8187    0.4293   -0.8228 O   0  0  0  0  0  0  0  0  0  0  0  0
    3.7137    0.4799   -1.5242 H   0  0  0  0  0  0  0  0  0  0  0  0
    3.1698    1.8954   -0.4673 H   0  0  0  0  0  0  0  0  0  0  0  0
    4.0512    0.4579    0.2290 H   0  0  0  0  0  0  0  0  0  0  0  0
   -3.6319   -1.9952    0.3849 H   0  0  0  0  0  0  0  0  0  0  0  0
   -2.2344   -2.8952   -1.4830 H   0  0  0  0  0  0  0  0  0  0  0  0
   -2.9004    0.0180    1.6332 H   0  0  0  0  0  0  0  0  0  0  0  0
   -0.1496   -1.7344   -2.0262 H   0  0  0  0  0  0  0  0  0  0  0  0
    0.6248    3.1112    1.0768 H   0  0  0  0  0  0  0  0  0  0  0  0
  1  6  1  0
  2  3  2  0
  2  4  1  0
  3  5  1  0
  4  7  2  0
  5  8  2  0
  6 10  2  0
  6 13  1  0
  7  8  1  0
  7  9  1  0
  8 13  1  0
  9 11  2  0
  9 12  1  0
  1 14  1  0
  1 15  1  0
  1 16  1  0
  2 17  1  0
  3 18  1  0
  4 19  1  0
  5 20  1  0
 12 21  1  0
M  END
